data_image0
_cell_length_a       9.54594
_cell_length_b       9.54594
_cell_length_c       9.54594
_cell_angle_alpha    60
_cell_angle_beta     60
_cell_angle_gamma    60

_symmetry_space_group_name_H-M    "P 1"
_symmetry_int_tables_number       1

loop_
  _symmetry_equiv_pos_as_xyz
  'x, y, z'

loop_
  _atom_site_label
  _atom_site_occupancy
  _atom_site_fract_x
  _atom_site_fract_y
  _atom_site_fract_z
  _atom_site_thermal_displace_type
  _atom_site_B_iso_or_equiv
  _atom_site_type_symbol
  Pd1      1.0000 0.00000  0.00000  0.00000  Biso   1.000  Pd
  Pd2      1.0000 0.00000  0.00000  0.33333  Biso   1.000  Pd
  Pd3      1.0000 0.00000  0.00000  0.66667  Biso   1.000  Pd
  Pd4      1.0000 0.00000  0.33333  0.00000  Biso   1.000  Pd
  Pd5      1.0000 0.00000  0.33333  0.33333  Biso   1.000  Pd
  Pd6      1.0000 0.00000  0.33333  0.66667  Biso   1.000  Pd
  Pd7      1.0000 0.00000  0.66667  0.00000  Biso   1.000  Pd
  Pd8      1.0000 0.00000  0.66667  0.33333  Biso   1.000  Pd
  Pd9      1.0000 0.00000  0.66667  0.66667  Biso   1.000  Pd
  Pd10     1.0000 0.33333  0.00000  0.00000  Biso   1.000  Pd
  Pd11     1.0000 0.33333  0.00000  0.33333  Biso   1.000  Pd
  Pd12     1.0000 0.33333  0.00000  0.66667  Biso   1.000  Pd
  Pd13     1.0000 0.33333  0.33333  0.00000  Biso   1.000  Pd
  Pd14     1.0000 0.33333  0.33333  0.66667  Biso   1.000  Pd
  Pd15     1.0000 0.33333  0.66667  0.00000  Biso   1.000  Pd
  Pd16     1.0000 0.33333  0.66667  0.33333  Biso   1.000  Pd
  Pd17     1.0000 0.33333  0.66667  0.66667  Biso   1.000  Pd
  Pd18     1.0000 0.66667  0.00000  0.00000  Biso   1.000  Pd
  Pd19     1.0000 0.66667  0.00000  0.33333  Biso   1.000  Pd
  Pd20     1.0000 0.66667  0.00000  0.66667  Biso   1.000  Pd
  Pd21     1.0000 0.66667  0.33333  0.00000  Biso   1.000  Pd
  Pd22     1.0000 0.66667  0.33333  0.33333  Biso   1.000  Pd
  Pd23     1.0000 0.66667  0.33333  0.66667  Biso   1.000  Pd
  Pd24     1.0000 0.66667  0.66667  0.00000  Biso   1.000  Pd
  Pd25     1.0000 0.66667  0.66667  0.33333  Biso   1.000  Pd
  Pd26     1.0000 0.66667  0.66667  0.66667  Biso   1.000  Pd
